
---------- Begin Simulation Statistics ----------
simSeconds                                   0.011968                       # Number of seconds simulated (Second)
simTicks                                  11967668500                       # Number of ticks simulated (Tick)
finalTick                                 11967668500                       # Number of ticks from beginning of simulation (restored from checkpoints and never reset) (Tick)
simFreq                                  1000000000000                       # The number of ticks per simulated second ((Tick/Second))
hostSeconds                                     41.20                       # Real time elapsed on the host (Second)
hostTickRate                                290449165                       # The number of ticks simulated per host second (ticks/s) ((Tick/Second))
hostMemory                                    8724216                       # Number of bytes of host memory used (Byte)
simInsts                                     10000000                       # Number of instructions simulated (Count)
simOps                                       11078096                       # Number of ops (including micro ops) simulated (Count)
hostInstRate                                   242692                       # Simulator instruction rate (inst/s) ((Count/Second))
hostOpRate                                     268856                       # Simulator op (including micro ops) rate (op/s) ((Count/Second))
system.clk_domain.clock                          1000                       # Clock period in ticks (Tick)
system.cpu.numCycles                         23935337                       # Number of cpu cycles simulated (Cycle)
system.cpu.numWorkItemsStarted                      0                       # Number of work items this cpu started (Count)
system.cpu.numWorkItemsCompleted                    0                       # Number of work items this cpu completed (Count)
system.cpu.numInsts                          10000000                       # Number of instructions committed (Count)
system.cpu.numOps                            11078096                       # Number of ops (including micro ops) committed (Count)
system.cpu.numDiscardedOps                      33863                       # Number of ops (including micro ops) which were discarded before commit (Count)
system.cpu.numFetchSuspends                         0                       # Number of times Execute suspended instruction fetching (Count)
system.cpu.cpi                               2.393534                       # CPI: cycles per instruction ((Cycle/Count))
system.cpu.ipc                               0.417792                       # IPC: instructions per cycle ((Count/Cycle))
system.cpu.committedInstType_0::No_OpClass          184      0.00%      0.00% # Class of committed instruction (Count)
system.cpu.committedInstType_0::IntAlu        7880252     71.13%     71.14% # Class of committed instruction (Count)
system.cpu.committedInstType_0::IntMult         38696      0.35%     71.48% # Class of committed instruction (Count)
system.cpu.committedInstType_0::IntDiv          10422      0.09%     71.58% # Class of committed instruction (Count)
system.cpu.committedInstType_0::FloatAdd         5098      0.05%     71.62% # Class of committed instruction (Count)
system.cpu.committedInstType_0::FloatCmp            6      0.00%     71.62% # Class of committed instruction (Count)
system.cpu.committedInstType_0::FloatCvt            0      0.00%     71.62% # Class of committed instruction (Count)
system.cpu.committedInstType_0::FloatMult           15      0.00%     71.62% # Class of committed instruction (Count)
system.cpu.committedInstType_0::FloatMultAcc           21      0.00%     71.63% # Class of committed instruction (Count)
system.cpu.committedInstType_0::FloatDiv            9      0.00%     71.63% # Class of committed instruction (Count)
system.cpu.committedInstType_0::FloatMisc        18228      0.16%     71.79% # Class of committed instruction (Count)
system.cpu.committedInstType_0::FloatSqrt            0      0.00%     71.79% # Class of committed instruction (Count)
system.cpu.committedInstType_0::SimdAdd           429      0.00%     71.79% # Class of committed instruction (Count)
system.cpu.committedInstType_0::SimdAddAcc            0      0.00%     71.79% # Class of committed instruction (Count)
system.cpu.committedInstType_0::SimdAlu           645      0.01%     71.80% # Class of committed instruction (Count)
system.cpu.committedInstType_0::SimdCmp           594      0.01%     71.80% # Class of committed instruction (Count)
system.cpu.committedInstType_0::SimdCvt             0      0.00%     71.80% # Class of committed instruction (Count)
system.cpu.committedInstType_0::SimdMisc          524      0.00%     71.81% # Class of committed instruction (Count)
system.cpu.committedInstType_0::SimdMult            0      0.00%     71.81% # Class of committed instruction (Count)
system.cpu.committedInstType_0::SimdMultAcc            0      0.00%     71.81% # Class of committed instruction (Count)
system.cpu.committedInstType_0::SimdShift            0      0.00%     71.81% # Class of committed instruction (Count)
system.cpu.committedInstType_0::SimdShiftAcc            0      0.00%     71.81% # Class of committed instruction (Count)
system.cpu.committedInstType_0::SimdDiv             0      0.00%     71.81% # Class of committed instruction (Count)
system.cpu.committedInstType_0::SimdSqrt            0      0.00%     71.81% # Class of committed instruction (Count)
system.cpu.committedInstType_0::SimdFloatAdd            0      0.00%     71.81% # Class of committed instruction (Count)
system.cpu.committedInstType_0::SimdFloatAlu            0      0.00%     71.81% # Class of committed instruction (Count)
system.cpu.committedInstType_0::SimdFloatCmp            0      0.00%     71.81% # Class of committed instruction (Count)
system.cpu.committedInstType_0::SimdFloatCvt            0      0.00%     71.81% # Class of committed instruction (Count)
system.cpu.committedInstType_0::SimdFloatDiv            0      0.00%     71.81% # Class of committed instruction (Count)
system.cpu.committedInstType_0::SimdFloatMisc            0      0.00%     71.81% # Class of committed instruction (Count)
system.cpu.committedInstType_0::SimdFloatMult            0      0.00%     71.81% # Class of committed instruction (Count)
system.cpu.committedInstType_0::SimdFloatMultAcc            0      0.00%     71.81% # Class of committed instruction (Count)
system.cpu.committedInstType_0::SimdFloatSqrt            0      0.00%     71.81% # Class of committed instruction (Count)
system.cpu.committedInstType_0::SimdReduceAdd            0      0.00%     71.81% # Class of committed instruction (Count)
system.cpu.committedInstType_0::SimdReduceAlu            0      0.00%     71.81% # Class of committed instruction (Count)
system.cpu.committedInstType_0::SimdReduceCmp            0      0.00%     71.81% # Class of committed instruction (Count)
system.cpu.committedInstType_0::SimdFloatReduceAdd            0      0.00%     71.81% # Class of committed instruction (Count)
system.cpu.committedInstType_0::SimdFloatReduceCmp            0      0.00%     71.81% # Class of committed instruction (Count)
system.cpu.committedInstType_0::SimdAes             0      0.00%     71.81% # Class of committed instruction (Count)
system.cpu.committedInstType_0::SimdAesMix            0      0.00%     71.81% # Class of committed instruction (Count)
system.cpu.committedInstType_0::SimdSha1Hash            0      0.00%     71.81% # Class of committed instruction (Count)
system.cpu.committedInstType_0::SimdSha1Hash2            0      0.00%     71.81% # Class of committed instruction (Count)
system.cpu.committedInstType_0::SimdSha256Hash            0      0.00%     71.81% # Class of committed instruction (Count)
system.cpu.committedInstType_0::SimdSha256Hash2            0      0.00%     71.81% # Class of committed instruction (Count)
system.cpu.committedInstType_0::SimdShaSigma2            0      0.00%     71.81% # Class of committed instruction (Count)
system.cpu.committedInstType_0::SimdShaSigma3            0      0.00%     71.81% # Class of committed instruction (Count)
system.cpu.committedInstType_0::SimdPredAlu            0      0.00%     71.81% # Class of committed instruction (Count)
system.cpu.committedInstType_0::MemRead       1800500     16.25%     88.06% # Class of committed instruction (Count)
system.cpu.committedInstType_0::MemWrite      1322473     11.94%    100.00% # Class of committed instruction (Count)
system.cpu.committedInstType_0::FloatMemRead            0      0.00%    100.00% # Class of committed instruction (Count)
system.cpu.committedInstType_0::FloatMemWrite            0      0.00%    100.00% # Class of committed instruction (Count)
system.cpu.committedInstType_0::IprAccess            0      0.00%    100.00% # Class of committed instruction (Count)
system.cpu.committedInstType_0::InstPrefetch            0      0.00%    100.00% # Class of committed instruction (Count)
system.cpu.committedInstType_0::total        11078096                       # Class of committed instruction (Count)
system.cpu.branchPred.lookups                 2176305                       # Number of BP lookups (Count)
system.cpu.branchPred.condPredicted           1701067                       # Number of conditional branches predicted (Count)
system.cpu.branchPred.condIncorrect             30126                       # Number of conditional branches incorrect (Count)
system.cpu.branchPred.BTBLookups              1063711                       # Number of BTB lookups (Count)
system.cpu.branchPred.BTBHits                 1061410                       # Number of BTB hits (Count)
system.cpu.branchPred.BTBHitRatio            0.997837                       # BTB Hit Ratio (Ratio)
system.cpu.branchPred.RASUsed                   98840                       # Number of times the RAS was used to get a target. (Count)
system.cpu.branchPred.RASIncorrect                  2                       # Number of incorrect RAS predictions. (Count)
system.cpu.branchPred.indirectLookups           29495                       # Number of indirect predictor lookups. (Count)
system.cpu.branchPred.indirectHits              29310                       # Number of indirect target hits. (Count)
system.cpu.branchPred.indirectMisses              185                       # Number of indirect misses. (Count)
system.cpu.branchPred.indirectMispredicted          136                       # Number of mispredicted indirect branches. (Count)
system.cpu.dcache.demandHits::cpu.data        3094975                       # number of demand (read+write) hits (Count)
system.cpu.dcache.demandHits::total           3094975                       # number of demand (read+write) hits (Count)
system.cpu.dcache.overallHits::cpu.data       3108196                       # number of overall hits (Count)
system.cpu.dcache.overallHits::total          3108196                       # number of overall hits (Count)
system.cpu.dcache.demandMisses::cpu.data         4835                       # number of demand (read+write) misses (Count)
system.cpu.dcache.demandMisses::total            4835                       # number of demand (read+write) misses (Count)
system.cpu.dcache.overallMisses::cpu.data         4838                       # number of overall misses (Count)
system.cpu.dcache.overallMisses::total           4838                       # number of overall misses (Count)
system.cpu.dcache.demandMissLatency::cpu.data    405809500                       # number of demand (read+write) miss ticks (Tick)
system.cpu.dcache.demandMissLatency::total    405809500                       # number of demand (read+write) miss ticks (Tick)
system.cpu.dcache.overallMissLatency::cpu.data    405809500                       # number of overall miss ticks (Tick)
system.cpu.dcache.overallMissLatency::total    405809500                       # number of overall miss ticks (Tick)
system.cpu.dcache.demandAccesses::cpu.data      3099810                       # number of demand (read+write) accesses (Count)
system.cpu.dcache.demandAccesses::total       3099810                       # number of demand (read+write) accesses (Count)
system.cpu.dcache.overallAccesses::cpu.data      3113034                       # number of overall (read+write) accesses (Count)
system.cpu.dcache.overallAccesses::total      3113034                       # number of overall (read+write) accesses (Count)
system.cpu.dcache.demandMissRate::cpu.data     0.001560                       # miss rate for demand accesses (Ratio)
system.cpu.dcache.demandMissRate::total      0.001560                       # miss rate for demand accesses (Ratio)
system.cpu.dcache.overallMissRate::cpu.data     0.001554                       # miss rate for overall accesses (Ratio)
system.cpu.dcache.overallMissRate::total     0.001554                       # miss rate for overall accesses (Ratio)
system.cpu.dcache.demandAvgMissLatency::cpu.data 83931.644261                       # average overall miss latency in ticks ((Tick/Count))
system.cpu.dcache.demandAvgMissLatency::total 83931.644261                       # average overall miss latency in ticks ((Tick/Count))
system.cpu.dcache.overallAvgMissLatency::cpu.data 83879.599008                       # average overall miss latency ((Tick/Count))
system.cpu.dcache.overallAvgMissLatency::total 83879.599008                       # average overall miss latency ((Tick/Count))
system.cpu.dcache.blockedCycles::no_mshrs            0                       # number of cycles access was blocked (Cycle)
system.cpu.dcache.blockedCycles::no_targets            0                       # number of cycles access was blocked (Cycle)
system.cpu.dcache.blockedCauses::no_mshrs            0                       # number of times access was blocked (Count)
system.cpu.dcache.blockedCauses::no_targets            0                       # number of times access was blocked (Count)
system.cpu.dcache.avgBlocked::no_mshrs            nan                       # average number of cycles each access was blocked ((Cycle/Count))
system.cpu.dcache.avgBlocked::no_targets          nan                       # average number of cycles each access was blocked ((Cycle/Count))
system.cpu.dcache.writebacks::writebacks         1370                       # number of writebacks (Count)
system.cpu.dcache.writebacks::total              1370                       # number of writebacks (Count)
system.cpu.dcache.demandMshrHits::cpu.data         2203                       # number of demand (read+write) MSHR hits (Count)
system.cpu.dcache.demandMshrHits::total          2203                       # number of demand (read+write) MSHR hits (Count)
system.cpu.dcache.overallMshrHits::cpu.data         2203                       # number of overall MSHR hits (Count)
system.cpu.dcache.overallMshrHits::total         2203                       # number of overall MSHR hits (Count)
system.cpu.dcache.demandMshrMisses::cpu.data         2632                       # number of demand (read+write) MSHR misses (Count)
system.cpu.dcache.demandMshrMisses::total         2632                       # number of demand (read+write) MSHR misses (Count)
system.cpu.dcache.overallMshrMisses::cpu.data         2635                       # number of overall MSHR misses (Count)
system.cpu.dcache.overallMshrMisses::total         2635                       # number of overall MSHR misses (Count)
system.cpu.dcache.demandMshrMissLatency::cpu.data    214444000                       # number of demand (read+write) MSHR miss ticks (Tick)
system.cpu.dcache.demandMshrMissLatency::total    214444000                       # number of demand (read+write) MSHR miss ticks (Tick)
system.cpu.dcache.overallMshrMissLatency::cpu.data    214675500                       # number of overall MSHR miss ticks (Tick)
system.cpu.dcache.overallMshrMissLatency::total    214675500                       # number of overall MSHR miss ticks (Tick)
system.cpu.dcache.demandMshrMissRate::cpu.data     0.000849                       # mshr miss ratio for demand accesses (Ratio)
system.cpu.dcache.demandMshrMissRate::total     0.000849                       # mshr miss ratio for demand accesses (Ratio)
system.cpu.dcache.overallMshrMissRate::cpu.data     0.000846                       # mshr miss ratio for overall accesses (Ratio)
system.cpu.dcache.overallMshrMissRate::total     0.000846                       # mshr miss ratio for overall accesses (Ratio)
system.cpu.dcache.demandAvgMshrMissLatency::cpu.data 81475.683891                       # average overall mshr miss latency ((Tick/Count))
system.cpu.dcache.demandAvgMshrMissLatency::total 81475.683891                       # average overall mshr miss latency ((Tick/Count))
system.cpu.dcache.overallAvgMshrMissLatency::cpu.data 81470.777989                       # average overall mshr miss latency ((Tick/Count))
system.cpu.dcache.overallAvgMshrMissLatency::total 81470.777989                       # average overall mshr miss latency ((Tick/Count))
system.cpu.dcache.replacements                   1611                       # number of replacements (Count)
system.cpu.dcache.LoadLockedReq.hits::cpu.data         4115                       # number of LoadLockedReq hits (Count)
system.cpu.dcache.LoadLockedReq.hits::total         4115                       # number of LoadLockedReq hits (Count)
system.cpu.dcache.LoadLockedReq.accesses::cpu.data         4115                       # number of LoadLockedReq accesses(hits+misses) (Count)
system.cpu.dcache.LoadLockedReq.accesses::total         4115                       # number of LoadLockedReq accesses(hits+misses) (Count)
system.cpu.dcache.ReadReq.hits::cpu.data      1781085                       # number of ReadReq hits (Count)
system.cpu.dcache.ReadReq.hits::total         1781085                       # number of ReadReq hits (Count)
system.cpu.dcache.ReadReq.misses::cpu.data          428                       # number of ReadReq misses (Count)
system.cpu.dcache.ReadReq.misses::total           428                       # number of ReadReq misses (Count)
system.cpu.dcache.ReadReq.missLatency::cpu.data     25345500                       # number of ReadReq miss ticks (Tick)
system.cpu.dcache.ReadReq.missLatency::total     25345500                       # number of ReadReq miss ticks (Tick)
system.cpu.dcache.ReadReq.accesses::cpu.data      1781513                       # number of ReadReq accesses(hits+misses) (Count)
system.cpu.dcache.ReadReq.accesses::total      1781513                       # number of ReadReq accesses(hits+misses) (Count)
system.cpu.dcache.ReadReq.missRate::cpu.data     0.000240                       # miss rate for ReadReq accesses (Ratio)
system.cpu.dcache.ReadReq.missRate::total     0.000240                       # miss rate for ReadReq accesses (Ratio)
system.cpu.dcache.ReadReq.avgMissLatency::cpu.data 59218.457944                       # average ReadReq miss latency ((Tick/Count))
system.cpu.dcache.ReadReq.avgMissLatency::total 59218.457944                       # average ReadReq miss latency ((Tick/Count))
system.cpu.dcache.ReadReq.mshrHits::cpu.data           22                       # number of ReadReq MSHR hits (Count)
system.cpu.dcache.ReadReq.mshrHits::total           22                       # number of ReadReq MSHR hits (Count)
system.cpu.dcache.ReadReq.mshrMisses::cpu.data          406                       # number of ReadReq MSHR misses (Count)
system.cpu.dcache.ReadReq.mshrMisses::total          406                       # number of ReadReq MSHR misses (Count)
system.cpu.dcache.ReadReq.mshrMissLatency::cpu.data     23163000                       # number of ReadReq MSHR miss ticks (Tick)
system.cpu.dcache.ReadReq.mshrMissLatency::total     23163000                       # number of ReadReq MSHR miss ticks (Tick)
system.cpu.dcache.ReadReq.mshrMissRate::cpu.data     0.000228                       # mshr miss rate for ReadReq accesses (Ratio)
system.cpu.dcache.ReadReq.mshrMissRate::total     0.000228                       # mshr miss rate for ReadReq accesses (Ratio)
system.cpu.dcache.ReadReq.avgMshrMissLatency::cpu.data 57051.724138                       # average ReadReq mshr miss latency ((Tick/Count))
system.cpu.dcache.ReadReq.avgMshrMissLatency::total 57051.724138                       # average ReadReq mshr miss latency ((Tick/Count))
system.cpu.dcache.SoftPFReq.hits::cpu.data        13221                       # number of SoftPFReq hits (Count)
system.cpu.dcache.SoftPFReq.hits::total         13221                       # number of SoftPFReq hits (Count)
system.cpu.dcache.SoftPFReq.misses::cpu.data            3                       # number of SoftPFReq misses (Count)
system.cpu.dcache.SoftPFReq.misses::total            3                       # number of SoftPFReq misses (Count)
system.cpu.dcache.SoftPFReq.accesses::cpu.data        13224                       # number of SoftPFReq accesses(hits+misses) (Count)
system.cpu.dcache.SoftPFReq.accesses::total        13224                       # number of SoftPFReq accesses(hits+misses) (Count)
system.cpu.dcache.SoftPFReq.missRate::cpu.data     0.000227                       # miss rate for SoftPFReq accesses (Ratio)
system.cpu.dcache.SoftPFReq.missRate::total     0.000227                       # miss rate for SoftPFReq accesses (Ratio)
system.cpu.dcache.SoftPFReq.mshrMisses::cpu.data            3                       # number of SoftPFReq MSHR misses (Count)
system.cpu.dcache.SoftPFReq.mshrMisses::total            3                       # number of SoftPFReq MSHR misses (Count)
system.cpu.dcache.SoftPFReq.mshrMissLatency::cpu.data       231500                       # number of SoftPFReq MSHR miss ticks (Tick)
system.cpu.dcache.SoftPFReq.mshrMissLatency::total       231500                       # number of SoftPFReq MSHR miss ticks (Tick)
system.cpu.dcache.SoftPFReq.mshrMissRate::cpu.data     0.000227                       # mshr miss rate for SoftPFReq accesses (Ratio)
system.cpu.dcache.SoftPFReq.mshrMissRate::total     0.000227                       # mshr miss rate for SoftPFReq accesses (Ratio)
system.cpu.dcache.SoftPFReq.avgMshrMissLatency::cpu.data 77166.666667                       # average SoftPFReq mshr miss latency ((Tick/Count))
system.cpu.dcache.SoftPFReq.avgMshrMissLatency::total 77166.666667                       # average SoftPFReq mshr miss latency ((Tick/Count))
system.cpu.dcache.StoreCondReq.hits::cpu.data         4115                       # number of StoreCondReq hits (Count)
system.cpu.dcache.StoreCondReq.hits::total         4115                       # number of StoreCondReq hits (Count)
system.cpu.dcache.StoreCondReq.accesses::cpu.data         4115                       # number of StoreCondReq accesses(hits+misses) (Count)
system.cpu.dcache.StoreCondReq.accesses::total         4115                       # number of StoreCondReq accesses(hits+misses) (Count)
system.cpu.dcache.WriteLineReq.hits::cpu.data            7                       # number of WriteLineReq hits (Count)
system.cpu.dcache.WriteLineReq.hits::total            7                       # number of WriteLineReq hits (Count)
system.cpu.dcache.WriteLineReq.misses::cpu.data            8                       # number of WriteLineReq misses (Count)
system.cpu.dcache.WriteLineReq.misses::total            8                       # number of WriteLineReq misses (Count)
system.cpu.dcache.WriteLineReq.missLatency::cpu.data       252000                       # number of WriteLineReq miss ticks (Tick)
system.cpu.dcache.WriteLineReq.missLatency::total       252000                       # number of WriteLineReq miss ticks (Tick)
system.cpu.dcache.WriteLineReq.accesses::cpu.data           15                       # number of WriteLineReq accesses(hits+misses) (Count)
system.cpu.dcache.WriteLineReq.accesses::total           15                       # number of WriteLineReq accesses(hits+misses) (Count)
system.cpu.dcache.WriteLineReq.missRate::cpu.data     0.533333                       # miss rate for WriteLineReq accesses (Ratio)
system.cpu.dcache.WriteLineReq.missRate::total     0.533333                       # miss rate for WriteLineReq accesses (Ratio)
system.cpu.dcache.WriteLineReq.avgMissLatency::cpu.data        31500                       # average WriteLineReq miss latency ((Tick/Count))
system.cpu.dcache.WriteLineReq.avgMissLatency::total        31500                       # average WriteLineReq miss latency ((Tick/Count))
system.cpu.dcache.WriteLineReq.mshrMisses::cpu.data            8                       # number of WriteLineReq MSHR misses (Count)
system.cpu.dcache.WriteLineReq.mshrMisses::total            8                       # number of WriteLineReq MSHR misses (Count)
system.cpu.dcache.WriteLineReq.mshrMissLatency::cpu.data       244000                       # number of WriteLineReq MSHR miss ticks (Tick)
system.cpu.dcache.WriteLineReq.mshrMissLatency::total       244000                       # number of WriteLineReq MSHR miss ticks (Tick)
system.cpu.dcache.WriteLineReq.mshrMissRate::cpu.data     0.533333                       # mshr miss rate for WriteLineReq accesses (Ratio)
system.cpu.dcache.WriteLineReq.mshrMissRate::total     0.533333                       # mshr miss rate for WriteLineReq accesses (Ratio)
system.cpu.dcache.WriteLineReq.avgMshrMissLatency::cpu.data        30500                       # average WriteLineReq mshr miss latency ((Tick/Count))
system.cpu.dcache.WriteLineReq.avgMshrMissLatency::total        30500                       # average WriteLineReq mshr miss latency ((Tick/Count))
system.cpu.dcache.WriteReq.hits::cpu.data      1313883                       # number of WriteReq hits (Count)
system.cpu.dcache.WriteReq.hits::total        1313883                       # number of WriteReq hits (Count)
system.cpu.dcache.WriteReq.misses::cpu.data         4399                       # number of WriteReq misses (Count)
system.cpu.dcache.WriteReq.misses::total         4399                       # number of WriteReq misses (Count)
system.cpu.dcache.WriteReq.missLatency::cpu.data    380212000                       # number of WriteReq miss ticks (Tick)
system.cpu.dcache.WriteReq.missLatency::total    380212000                       # number of WriteReq miss ticks (Tick)
system.cpu.dcache.WriteReq.accesses::cpu.data      1318282                       # number of WriteReq accesses(hits+misses) (Count)
system.cpu.dcache.WriteReq.accesses::total      1318282                       # number of WriteReq accesses(hits+misses) (Count)
system.cpu.dcache.WriteReq.missRate::cpu.data     0.003337                       # miss rate for WriteReq accesses (Ratio)
system.cpu.dcache.WriteReq.missRate::total     0.003337                       # miss rate for WriteReq accesses (Ratio)
system.cpu.dcache.WriteReq.avgMissLatency::cpu.data 86431.461696                       # average WriteReq miss latency ((Tick/Count))
system.cpu.dcache.WriteReq.avgMissLatency::total 86431.461696                       # average WriteReq miss latency ((Tick/Count))
system.cpu.dcache.WriteReq.mshrHits::cpu.data         2181                       # number of WriteReq MSHR hits (Count)
system.cpu.dcache.WriteReq.mshrHits::total         2181                       # number of WriteReq MSHR hits (Count)
system.cpu.dcache.WriteReq.mshrMisses::cpu.data         2218                       # number of WriteReq MSHR misses (Count)
system.cpu.dcache.WriteReq.mshrMisses::total         2218                       # number of WriteReq MSHR misses (Count)
system.cpu.dcache.WriteReq.mshrMissLatency::cpu.data    191037000                       # number of WriteReq MSHR miss ticks (Tick)
system.cpu.dcache.WriteReq.mshrMissLatency::total    191037000                       # number of WriteReq MSHR miss ticks (Tick)
system.cpu.dcache.WriteReq.mshrMissRate::cpu.data     0.001682                       # mshr miss rate for WriteReq accesses (Ratio)
system.cpu.dcache.WriteReq.mshrMissRate::total     0.001682                       # mshr miss rate for WriteReq accesses (Ratio)
system.cpu.dcache.WriteReq.avgMshrMissLatency::cpu.data 86130.297565                       # average WriteReq mshr miss latency ((Tick/Count))
system.cpu.dcache.WriteReq.avgMshrMissLatency::total 86130.297565                       # average WriteReq mshr miss latency ((Tick/Count))
system.cpu.dcache.power_state.pwrStateResidencyTicks::UNDEFINED  11967668500                       # Cumulative time (in ticks) in various power states (Tick)
system.cpu.dcache.tags.tagsInUse           862.300853                       # Average ticks per tags in use ((Tick/Count))
system.cpu.dcache.tags.totalRefs              3119061                       # Total number of references to valid blocks. (Count)
system.cpu.dcache.tags.sampledRefs               2635                       # Sample count of references to valid blocks. (Count)
system.cpu.dcache.tags.avgRefs            1183.704364                       # Average number of references to valid blocks. ((Count/Count))
system.cpu.dcache.tags.warmupTick              177500                       # The tick when the warmup percentage was hit. (Tick)
system.cpu.dcache.tags.occupancies::cpu.data   862.300853                       # Average occupied blocks per tick, per requestor ((Count/Tick))
system.cpu.dcache.tags.avgOccs::cpu.data     0.842091                       # Average percentage of cache occupancy ((Ratio/Tick))
system.cpu.dcache.tags.avgOccs::total        0.842091                       # Average percentage of cache occupancy ((Ratio/Tick))
system.cpu.dcache.tags.occupanciesTaskId::1024         1024                       # Occupied blocks per task id (Count)
system.cpu.dcache.tags.ageTaskId_1024::0            3                       # Occupied blocks per task id, per block age (Count)
system.cpu.dcache.tags.ageTaskId_1024::1           14                       # Occupied blocks per task id, per block age (Count)
system.cpu.dcache.tags.ageTaskId_1024::2          149                       # Occupied blocks per task id, per block age (Count)
system.cpu.dcache.tags.ageTaskId_1024::3          773                       # Occupied blocks per task id, per block age (Count)
system.cpu.dcache.tags.ageTaskId_1024::4           85                       # Occupied blocks per task id, per block age (Count)
system.cpu.dcache.tags.ratioOccsTaskId::1024            1                       # Ratio of occupied blocks and all blocks, per task id (Ratio)
system.cpu.dcache.tags.tagAccesses            6245163                       # Number of tag accesses (Count)
system.cpu.dcache.tags.dataAccesses           6245163                       # Number of data accesses (Count)
system.cpu.dcache.tags.power_state.pwrStateResidencyTicks::UNDEFINED  11967668500                       # Cumulative time (in ticks) in various power states (Tick)
system.cpu.fetch2.intInstructions             5892049                       # Number of integer instructions successfully decoded (Count)
system.cpu.fetch2.fpInstructions                    0                       # Number of floating point instructions successfully decoded (Count)
system.cpu.fetch2.vecInstructions               25865                       # Number of SIMD instructions successfully decoded (Count)
system.cpu.fetch2.loadInstructions            1398506                       # Number of memory load instructions successfully decoded (Count)
system.cpu.fetch2.storeInstructions            691327                       # Number of memory store instructions successfully decoded (Count)
system.cpu.fetch2.amoInstructions                   0                       # Number of memory atomic instructions successfully decoded (Count)
system.cpu.icache.demandHits::cpu.inst        3373681                       # number of demand (read+write) hits (Count)
system.cpu.icache.demandHits::total           3373681                       # number of demand (read+write) hits (Count)
system.cpu.icache.overallHits::cpu.inst       3373681                       # number of overall hits (Count)
system.cpu.icache.overallHits::total          3373681                       # number of overall hits (Count)
system.cpu.icache.demandMisses::cpu.inst       306474                       # number of demand (read+write) misses (Count)
system.cpu.icache.demandMisses::total          306474                       # number of demand (read+write) misses (Count)
system.cpu.icache.overallMisses::cpu.inst       306474                       # number of overall misses (Count)
system.cpu.icache.overallMisses::total         306474                       # number of overall misses (Count)
system.cpu.icache.demandMissLatency::cpu.inst   4040200000                       # number of demand (read+write) miss ticks (Tick)
system.cpu.icache.demandMissLatency::total   4040200000                       # number of demand (read+write) miss ticks (Tick)
system.cpu.icache.overallMissLatency::cpu.inst   4040200000                       # number of overall miss ticks (Tick)
system.cpu.icache.overallMissLatency::total   4040200000                       # number of overall miss ticks (Tick)
system.cpu.icache.demandAccesses::cpu.inst      3680155                       # number of demand (read+write) accesses (Count)
system.cpu.icache.demandAccesses::total       3680155                       # number of demand (read+write) accesses (Count)
system.cpu.icache.overallAccesses::cpu.inst      3680155                       # number of overall (read+write) accesses (Count)
system.cpu.icache.overallAccesses::total      3680155                       # number of overall (read+write) accesses (Count)
system.cpu.icache.demandMissRate::cpu.inst     0.083277                       # miss rate for demand accesses (Ratio)
system.cpu.icache.demandMissRate::total      0.083277                       # miss rate for demand accesses (Ratio)
system.cpu.icache.overallMissRate::cpu.inst     0.083277                       # miss rate for overall accesses (Ratio)
system.cpu.icache.overallMissRate::total     0.083277                       # miss rate for overall accesses (Ratio)
system.cpu.icache.demandAvgMissLatency::cpu.inst 13182.847485                       # average overall miss latency in ticks ((Tick/Count))
system.cpu.icache.demandAvgMissLatency::total 13182.847485                       # average overall miss latency in ticks ((Tick/Count))
system.cpu.icache.overallAvgMissLatency::cpu.inst 13182.847485                       # average overall miss latency ((Tick/Count))
system.cpu.icache.overallAvgMissLatency::total 13182.847485                       # average overall miss latency ((Tick/Count))
system.cpu.icache.blockedCycles::no_mshrs            0                       # number of cycles access was blocked (Cycle)
system.cpu.icache.blockedCycles::no_targets            0                       # number of cycles access was blocked (Cycle)
system.cpu.icache.blockedCauses::no_mshrs            0                       # number of times access was blocked (Count)
system.cpu.icache.blockedCauses::no_targets            0                       # number of times access was blocked (Count)
system.cpu.icache.avgBlocked::no_mshrs            nan                       # average number of cycles each access was blocked ((Cycle/Count))
system.cpu.icache.avgBlocked::no_targets          nan                       # average number of cycles each access was blocked ((Cycle/Count))
system.cpu.icache.writebacks::writebacks       306218                       # number of writebacks (Count)
system.cpu.icache.writebacks::total            306218                       # number of writebacks (Count)
system.cpu.icache.demandMshrMisses::cpu.inst       306474                       # number of demand (read+write) MSHR misses (Count)
system.cpu.icache.demandMshrMisses::total       306474                       # number of demand (read+write) MSHR misses (Count)
system.cpu.icache.overallMshrMisses::cpu.inst       306474                       # number of overall MSHR misses (Count)
system.cpu.icache.overallMshrMisses::total       306474                       # number of overall MSHR misses (Count)
system.cpu.icache.demandMshrMissLatency::cpu.inst   3733726000                       # number of demand (read+write) MSHR miss ticks (Tick)
system.cpu.icache.demandMshrMissLatency::total   3733726000                       # number of demand (read+write) MSHR miss ticks (Tick)
system.cpu.icache.overallMshrMissLatency::cpu.inst   3733726000                       # number of overall MSHR miss ticks (Tick)
system.cpu.icache.overallMshrMissLatency::total   3733726000                       # number of overall MSHR miss ticks (Tick)
system.cpu.icache.demandMshrMissRate::cpu.inst     0.083277                       # mshr miss ratio for demand accesses (Ratio)
system.cpu.icache.demandMshrMissRate::total     0.083277                       # mshr miss ratio for demand accesses (Ratio)
system.cpu.icache.overallMshrMissRate::cpu.inst     0.083277                       # mshr miss ratio for overall accesses (Ratio)
system.cpu.icache.overallMshrMissRate::total     0.083277                       # mshr miss ratio for overall accesses (Ratio)
system.cpu.icache.demandAvgMshrMissLatency::cpu.inst 12182.847485                       # average overall mshr miss latency ((Tick/Count))
system.cpu.icache.demandAvgMshrMissLatency::total 12182.847485                       # average overall mshr miss latency ((Tick/Count))
system.cpu.icache.overallAvgMshrMissLatency::cpu.inst 12182.847485                       # average overall mshr miss latency ((Tick/Count))
system.cpu.icache.overallAvgMshrMissLatency::total 12182.847485                       # average overall mshr miss latency ((Tick/Count))
system.cpu.icache.replacements                 306218                       # number of replacements (Count)
system.cpu.icache.ReadReq.hits::cpu.inst      3373681                       # number of ReadReq hits (Count)
system.cpu.icache.ReadReq.hits::total         3373681                       # number of ReadReq hits (Count)
system.cpu.icache.ReadReq.misses::cpu.inst       306474                       # number of ReadReq misses (Count)
system.cpu.icache.ReadReq.misses::total        306474                       # number of ReadReq misses (Count)
system.cpu.icache.ReadReq.missLatency::cpu.inst   4040200000                       # number of ReadReq miss ticks (Tick)
system.cpu.icache.ReadReq.missLatency::total   4040200000                       # number of ReadReq miss ticks (Tick)
system.cpu.icache.ReadReq.accesses::cpu.inst      3680155                       # number of ReadReq accesses(hits+misses) (Count)
system.cpu.icache.ReadReq.accesses::total      3680155                       # number of ReadReq accesses(hits+misses) (Count)
system.cpu.icache.ReadReq.missRate::cpu.inst     0.083277                       # miss rate for ReadReq accesses (Ratio)
system.cpu.icache.ReadReq.missRate::total     0.083277                       # miss rate for ReadReq accesses (Ratio)
system.cpu.icache.ReadReq.avgMissLatency::cpu.inst 13182.847485                       # average ReadReq miss latency ((Tick/Count))
system.cpu.icache.ReadReq.avgMissLatency::total 13182.847485                       # average ReadReq miss latency ((Tick/Count))
system.cpu.icache.ReadReq.mshrMisses::cpu.inst       306474                       # number of ReadReq MSHR misses (Count)
system.cpu.icache.ReadReq.mshrMisses::total       306474                       # number of ReadReq MSHR misses (Count)
system.cpu.icache.ReadReq.mshrMissLatency::cpu.inst   3733726000                       # number of ReadReq MSHR miss ticks (Tick)
system.cpu.icache.ReadReq.mshrMissLatency::total   3733726000                       # number of ReadReq MSHR miss ticks (Tick)
system.cpu.icache.ReadReq.mshrMissRate::cpu.inst     0.083277                       # mshr miss rate for ReadReq accesses (Ratio)
system.cpu.icache.ReadReq.mshrMissRate::total     0.083277                       # mshr miss rate for ReadReq accesses (Ratio)
system.cpu.icache.ReadReq.avgMshrMissLatency::cpu.inst 12182.847485                       # average ReadReq mshr miss latency ((Tick/Count))
system.cpu.icache.ReadReq.avgMshrMissLatency::total 12182.847485                       # average ReadReq mshr miss latency ((Tick/Count))
system.cpu.icache.power_state.pwrStateResidencyTicks::UNDEFINED  11967668500                       # Cumulative time (in ticks) in various power states (Tick)
system.cpu.icache.tags.tagsInUse           255.610921                       # Average ticks per tags in use ((Tick/Count))
system.cpu.icache.tags.totalRefs              3680155                       # Total number of references to valid blocks. (Count)
system.cpu.icache.tags.sampledRefs             306474                       # Sample count of references to valid blocks. (Count)
system.cpu.icache.tags.avgRefs              12.008050                       # Average number of references to valid blocks. ((Count/Count))
system.cpu.icache.tags.warmupTick               87500                       # The tick when the warmup percentage was hit. (Tick)
system.cpu.icache.tags.occupancies::cpu.inst   255.610921                       # Average occupied blocks per tick, per requestor ((Count/Tick))
system.cpu.icache.tags.avgOccs::cpu.inst     0.998480                       # Average percentage of cache occupancy ((Ratio/Tick))
system.cpu.icache.tags.avgOccs::total        0.998480                       # Average percentage of cache occupancy ((Ratio/Tick))
system.cpu.icache.tags.occupanciesTaskId::1024          256                       # Occupied blocks per task id (Count)
system.cpu.icache.tags.ageTaskId_1024::0           48                       # Occupied blocks per task id, per block age (Count)
system.cpu.icache.tags.ageTaskId_1024::1           18                       # Occupied blocks per task id, per block age (Count)
system.cpu.icache.tags.ageTaskId_1024::2           24                       # Occupied blocks per task id, per block age (Count)
system.cpu.icache.tags.ageTaskId_1024::3           10                       # Occupied blocks per task id, per block age (Count)
system.cpu.icache.tags.ageTaskId_1024::4          156                       # Occupied blocks per task id, per block age (Count)
system.cpu.icache.tags.ratioOccsTaskId::1024            1                       # Ratio of occupied blocks and all blocks, per task id (Ratio)
system.cpu.icache.tags.tagAccesses            7666784                       # Number of tag accesses (Count)
system.cpu.icache.tags.dataAccesses           7666784                       # Number of data accesses (Count)
system.cpu.icache.tags.power_state.pwrStateResidencyTicks::UNDEFINED  11967668500                       # Cumulative time (in ticks) in various power states (Tick)
system.cpu.mmu.alignFaults                          0                       # Number of MMU faults due to alignment restrictions (Count)
system.cpu.mmu.prefetchFaults                       0                       # Number of MMU faults due to prefetch (Count)
system.cpu.mmu.domainFaults                         0                       # Number of MMU faults due to domain restrictions (Count)
system.cpu.mmu.permsFaults                          0                       # Number of MMU faults due to permissions restrictions (Count)
system.cpu.mmu.dtb.readHits                         0                       # Read hits (Count)
system.cpu.mmu.dtb.readMisses                       0                       # Read misses (Count)
system.cpu.mmu.dtb.writeHits                        0                       # Write hits (Count)
system.cpu.mmu.dtb.writeMisses                      0                       # Write misses (Count)
system.cpu.mmu.dtb.inserts                          0                       # Number of times an entry is inserted into the TLB (Count)
system.cpu.mmu.dtb.flushTlb                         0                       # Number of times complete TLB was flushed (Count)
system.cpu.mmu.dtb.flushTlbMva                      0                       # Number of times TLB was flushed by MVA (Count)
system.cpu.mmu.dtb.flushTlbMvaAsid                  0                       # Number of times TLB was flushed by MVA & ASID (Count)
system.cpu.mmu.dtb.flushTlbAsid                     0                       # Number of times TLB was flushed by ASID (Count)
system.cpu.mmu.dtb.flushedEntries                   0                       # Number of entries that have been flushed from TLB (Count)
system.cpu.mmu.dtb.readAccesses                     0                       # Read accesses (Count)
system.cpu.mmu.dtb.writeAccesses                    0                       # Write accesses (Count)
system.cpu.mmu.dtb.hits                             0                       # Total TLB (inst and data) hits (Count)
system.cpu.mmu.dtb.misses                           0                       # Total TLB (inst and data) misses (Count)
system.cpu.mmu.dtb.accesses                         0                       # Total TLB (inst and data) accesses (Count)
system.cpu.mmu.dtb_walker.walks                     0                       # Table walker walks requested (Count)
system.cpu.mmu.dtb_walker.requestOrigin_Requested::Data            0                       # Table walker requests started/completed, data/inst (Count)
system.cpu.mmu.dtb_walker.requestOrigin_Requested::Inst            0                       # Table walker requests started/completed, data/inst (Count)
system.cpu.mmu.dtb_walker.requestOrigin_Requested::total            0                       # Table walker requests started/completed, data/inst (Count)
system.cpu.mmu.dtb_walker.requestOrigin_Completed::Data            0                       # Table walker requests started/completed, data/inst (Count)
system.cpu.mmu.dtb_walker.requestOrigin_Completed::Inst            0                       # Table walker requests started/completed, data/inst (Count)
system.cpu.mmu.dtb_walker.requestOrigin_Completed::total            0                       # Table walker requests started/completed, data/inst (Count)
system.cpu.mmu.dtb_walker.requestOrigin::total            0                       # Table walker requests started/completed, data/inst (Count)
system.cpu.mmu.dtb_walker.power_state.pwrStateResidencyTicks::UNDEFINED  11967668500                       # Cumulative time (in ticks) in various power states (Tick)
system.cpu.mmu.itb.instHits                         0                       # Inst hits (Count)
system.cpu.mmu.itb.instMisses                       0                       # Inst misses (Count)
system.cpu.mmu.itb.inserts                          0                       # Number of times an entry is inserted into the TLB (Count)
system.cpu.mmu.itb.flushTlb                         0                       # Number of times complete TLB was flushed (Count)
system.cpu.mmu.itb.flushTlbMva                      0                       # Number of times TLB was flushed by MVA (Count)
system.cpu.mmu.itb.flushTlbMvaAsid                  0                       # Number of times TLB was flushed by MVA & ASID (Count)
system.cpu.mmu.itb.flushTlbAsid                     0                       # Number of times TLB was flushed by ASID (Count)
system.cpu.mmu.itb.flushedEntries                   0                       # Number of entries that have been flushed from TLB (Count)
system.cpu.mmu.itb.instAccesses                     0                       # Inst accesses (Count)
system.cpu.mmu.itb.hits                             0                       # Total TLB (inst and data) hits (Count)
system.cpu.mmu.itb.misses                           0                       # Total TLB (inst and data) misses (Count)
system.cpu.mmu.itb.accesses                         0                       # Total TLB (inst and data) accesses (Count)
system.cpu.mmu.itb_walker.walks                     0                       # Table walker walks requested (Count)
system.cpu.mmu.itb_walker.requestOrigin_Requested::Data            0                       # Table walker requests started/completed, data/inst (Count)
system.cpu.mmu.itb_walker.requestOrigin_Requested::Inst            0                       # Table walker requests started/completed, data/inst (Count)
system.cpu.mmu.itb_walker.requestOrigin_Requested::total            0                       # Table walker requests started/completed, data/inst (Count)
system.cpu.mmu.itb_walker.requestOrigin_Completed::Data            0                       # Table walker requests started/completed, data/inst (Count)
system.cpu.mmu.itb_walker.requestOrigin_Completed::Inst            0                       # Table walker requests started/completed, data/inst (Count)
system.cpu.mmu.itb_walker.requestOrigin_Completed::total            0                       # Table walker requests started/completed, data/inst (Count)
system.cpu.mmu.itb_walker.requestOrigin::total            0                       # Table walker requests started/completed, data/inst (Count)
system.cpu.mmu.itb_walker.power_state.pwrStateResidencyTicks::UNDEFINED  11967668500                       # Cumulative time (in ticks) in various power states (Tick)
system.cpu.mmu.l2_shared.instHits                   0                       # Inst hits (Count)
system.cpu.mmu.l2_shared.instMisses                 0                       # Inst misses (Count)
system.cpu.mmu.l2_shared.inserts                    0                       # Number of times an entry is inserted into the TLB (Count)
system.cpu.mmu.l2_shared.flushTlb                   0                       # Number of times complete TLB was flushed (Count)
system.cpu.mmu.l2_shared.flushTlbMva                0                       # Number of times TLB was flushed by MVA (Count)
system.cpu.mmu.l2_shared.flushTlbMvaAsid            0                       # Number of times TLB was flushed by MVA & ASID (Count)
system.cpu.mmu.l2_shared.flushTlbAsid               0                       # Number of times TLB was flushed by ASID (Count)
system.cpu.mmu.l2_shared.flushedEntries             0                       # Number of entries that have been flushed from TLB (Count)
system.cpu.mmu.l2_shared.instAccesses               0                       # Inst accesses (Count)
system.cpu.mmu.l2_shared.hits                       0                       # Total TLB (inst and data) hits (Count)
system.cpu.mmu.l2_shared.misses                     0                       # Total TLB (inst and data) misses (Count)
system.cpu.mmu.l2_shared.accesses                   0                       # Total TLB (inst and data) accesses (Count)
system.cpu.mmu.stage2_dtb.readHits                  0                       # Read hits (Count)
system.cpu.mmu.stage2_dtb.readMisses                0                       # Read misses (Count)
system.cpu.mmu.stage2_dtb.writeHits                 0                       # Write hits (Count)
system.cpu.mmu.stage2_dtb.writeMisses               0                       # Write misses (Count)
system.cpu.mmu.stage2_dtb.inserts                   0                       # Number of times an entry is inserted into the TLB (Count)
system.cpu.mmu.stage2_dtb.flushTlb                  0                       # Number of times complete TLB was flushed (Count)
system.cpu.mmu.stage2_dtb.flushTlbMva               0                       # Number of times TLB was flushed by MVA (Count)
system.cpu.mmu.stage2_dtb.flushTlbMvaAsid            0                       # Number of times TLB was flushed by MVA & ASID (Count)
system.cpu.mmu.stage2_dtb.flushTlbAsid              0                       # Number of times TLB was flushed by ASID (Count)
system.cpu.mmu.stage2_dtb.flushedEntries            0                       # Number of entries that have been flushed from TLB (Count)
system.cpu.mmu.stage2_dtb.readAccesses              0                       # Read accesses (Count)
system.cpu.mmu.stage2_dtb.writeAccesses             0                       # Write accesses (Count)
system.cpu.mmu.stage2_dtb.hits                      0                       # Total TLB (inst and data) hits (Count)
system.cpu.mmu.stage2_dtb.misses                    0                       # Total TLB (inst and data) misses (Count)
system.cpu.mmu.stage2_dtb.accesses                  0                       # Total TLB (inst and data) accesses (Count)
system.cpu.mmu.stage2_dtb_walker.walks              0                       # Table walker walks requested (Count)
system.cpu.mmu.stage2_dtb_walker.requestOrigin_Requested::Data            0                       # Table walker requests started/completed, data/inst (Count)
system.cpu.mmu.stage2_dtb_walker.requestOrigin_Requested::Inst            0                       # Table walker requests started/completed, data/inst (Count)
system.cpu.mmu.stage2_dtb_walker.requestOrigin_Requested::total            0                       # Table walker requests started/completed, data/inst (Count)
system.cpu.mmu.stage2_dtb_walker.requestOrigin_Completed::Data            0                       # Table walker requests started/completed, data/inst (Count)
system.cpu.mmu.stage2_dtb_walker.requestOrigin_Completed::Inst            0                       # Table walker requests started/completed, data/inst (Count)
system.cpu.mmu.stage2_dtb_walker.requestOrigin_Completed::total            0                       # Table walker requests started/completed, data/inst (Count)
system.cpu.mmu.stage2_dtb_walker.requestOrigin::total            0                       # Table walker requests started/completed, data/inst (Count)
system.cpu.mmu.stage2_dtb_walker.power_state.pwrStateResidencyTicks::UNDEFINED  11967668500                       # Cumulative time (in ticks) in various power states (Tick)
system.cpu.mmu.stage2_itb.instHits                  0                       # Inst hits (Count)
system.cpu.mmu.stage2_itb.instMisses                0                       # Inst misses (Count)
system.cpu.mmu.stage2_itb.inserts                   0                       # Number of times an entry is inserted into the TLB (Count)
system.cpu.mmu.stage2_itb.flushTlb                  0                       # Number of times complete TLB was flushed (Count)
system.cpu.mmu.stage2_itb.flushTlbMva               0                       # Number of times TLB was flushed by MVA (Count)
system.cpu.mmu.stage2_itb.flushTlbMvaAsid            0                       # Number of times TLB was flushed by MVA & ASID (Count)
system.cpu.mmu.stage2_itb.flushTlbAsid              0                       # Number of times TLB was flushed by ASID (Count)
system.cpu.mmu.stage2_itb.flushedEntries            0                       # Number of entries that have been flushed from TLB (Count)
system.cpu.mmu.stage2_itb.instAccesses              0                       # Inst accesses (Count)
system.cpu.mmu.stage2_itb.hits                      0                       # Total TLB (inst and data) hits (Count)
system.cpu.mmu.stage2_itb.misses                    0                       # Total TLB (inst and data) misses (Count)
system.cpu.mmu.stage2_itb.accesses                  0                       # Total TLB (inst and data) accesses (Count)
system.cpu.mmu.stage2_itb_walker.walks              0                       # Table walker walks requested (Count)
system.cpu.mmu.stage2_itb_walker.requestOrigin_Requested::Data            0                       # Table walker requests started/completed, data/inst (Count)
system.cpu.mmu.stage2_itb_walker.requestOrigin_Requested::Inst            0                       # Table walker requests started/completed, data/inst (Count)
system.cpu.mmu.stage2_itb_walker.requestOrigin_Requested::total            0                       # Table walker requests started/completed, data/inst (Count)
system.cpu.mmu.stage2_itb_walker.requestOrigin_Completed::Data            0                       # Table walker requests started/completed, data/inst (Count)
system.cpu.mmu.stage2_itb_walker.requestOrigin_Completed::Inst            0                       # Table walker requests started/completed, data/inst (Count)
system.cpu.mmu.stage2_itb_walker.requestOrigin_Completed::total            0                       # Table walker requests started/completed, data/inst (Count)
system.cpu.mmu.stage2_itb_walker.requestOrigin::total            0                       # Table walker requests started/completed, data/inst (Count)
system.cpu.mmu.stage2_itb_walker.power_state.pwrStateResidencyTicks::UNDEFINED  11967668500                       # Cumulative time (in ticks) in various power states (Tick)
system.cpu.power_state.pwrStateResidencyTicks::ON  11967668500                       # Cumulative time (in ticks) in various power states (Tick)
system.cpu.thread_0.numInsts                 10000000                       # Number of Instructions committed (Count)
system.cpu.thread_0.numOps                   11078096                       # Number of Ops committed (Count)
system.cpu.thread_0.numMemRefs                      0                       # Number of Memory References (Count)
system.cpu.workload.numSyscalls                    18                       # Number of system calls (Count)
system.cpu_clk_domain.clock                       500                       # Clock period in ticks (Tick)
system.cpu_voltage_domain.voltage                   1                       # Voltage in Volts (Volt)
system.l2.demandHits::cpu.inst                 305615                       # number of demand (read+write) hits (Count)
system.l2.demandHits::cpu.data                    195                       # number of demand (read+write) hits (Count)
system.l2.demandHits::total                    305810                       # number of demand (read+write) hits (Count)
system.l2.overallHits::cpu.inst                305615                       # number of overall hits (Count)
system.l2.overallHits::cpu.data                   195                       # number of overall hits (Count)
system.l2.overallHits::total                   305810                       # number of overall hits (Count)
system.l2.demandMisses::cpu.inst                  859                       # number of demand (read+write) misses (Count)
system.l2.demandMisses::cpu.data                 2432                       # number of demand (read+write) misses (Count)
system.l2.demandMisses::total                    3291                       # number of demand (read+write) misses (Count)
system.l2.overallMisses::cpu.inst                 859                       # number of overall misses (Count)
system.l2.overallMisses::cpu.data                2432                       # number of overall misses (Count)
system.l2.overallMisses::total                   3291                       # number of overall misses (Count)
system.l2.demandMissLatency::cpu.inst        65047500                       # number of demand (read+write) miss ticks (Tick)
system.l2.demandMissLatency::cpu.data       208434500                       # number of demand (read+write) miss ticks (Tick)
system.l2.demandMissLatency::total          273482000                       # number of demand (read+write) miss ticks (Tick)
system.l2.overallMissLatency::cpu.inst       65047500                       # number of overall miss ticks (Tick)
system.l2.overallMissLatency::cpu.data      208434500                       # number of overall miss ticks (Tick)
system.l2.overallMissLatency::total         273482000                       # number of overall miss ticks (Tick)
system.l2.demandAccesses::cpu.inst             306474                       # number of demand (read+write) accesses (Count)
system.l2.demandAccesses::cpu.data               2627                       # number of demand (read+write) accesses (Count)
system.l2.demandAccesses::total                309101                       # number of demand (read+write) accesses (Count)
system.l2.overallAccesses::cpu.inst            306474                       # number of overall (read+write) accesses (Count)
system.l2.overallAccesses::cpu.data              2627                       # number of overall (read+write) accesses (Count)
system.l2.overallAccesses::total               309101                       # number of overall (read+write) accesses (Count)
system.l2.demandMissRate::cpu.inst           0.002803                       # miss rate for demand accesses (Ratio)
system.l2.demandMissRate::cpu.data           0.925771                       # miss rate for demand accesses (Ratio)
system.l2.demandMissRate::total              0.010647                       # miss rate for demand accesses (Ratio)
system.l2.overallMissRate::cpu.inst          0.002803                       # miss rate for overall accesses (Ratio)
system.l2.overallMissRate::cpu.data          0.925771                       # miss rate for overall accesses (Ratio)
system.l2.overallMissRate::total             0.010647                       # miss rate for overall accesses (Ratio)
system.l2.demandAvgMissLatency::cpu.inst 75724.679860                       # average overall miss latency in ticks ((Tick/Count))
system.l2.demandAvgMissLatency::cpu.data 85704.975329                       # average overall miss latency in ticks ((Tick/Count))
system.l2.demandAvgMissLatency::total    83099.969614                       # average overall miss latency in ticks ((Tick/Count))
system.l2.overallAvgMissLatency::cpu.inst 75724.679860                       # average overall miss latency ((Tick/Count))
system.l2.overallAvgMissLatency::cpu.data 85704.975329                       # average overall miss latency ((Tick/Count))
system.l2.overallAvgMissLatency::total   83099.969614                       # average overall miss latency ((Tick/Count))
system.l2.blockedCycles::no_mshrs                   0                       # number of cycles access was blocked (Cycle)
system.l2.blockedCycles::no_targets                 0                       # number of cycles access was blocked (Cycle)
system.l2.blockedCauses::no_mshrs                   0                       # number of times access was blocked (Count)
system.l2.blockedCauses::no_targets                 0                       # number of times access was blocked (Count)
system.l2.avgBlocked::no_mshrs                    nan                       # average number of cycles each access was blocked ((Cycle/Count))
system.l2.avgBlocked::no_targets                  nan                       # average number of cycles each access was blocked ((Cycle/Count))
system.l2.demandMshrMisses::cpu.inst              859                       # number of demand (read+write) MSHR misses (Count)
system.l2.demandMshrMisses::cpu.data             2432                       # number of demand (read+write) MSHR misses (Count)
system.l2.demandMshrMisses::total                3291                       # number of demand (read+write) MSHR misses (Count)
system.l2.overallMshrMisses::cpu.inst             859                       # number of overall MSHR misses (Count)
system.l2.overallMshrMisses::cpu.data            2432                       # number of overall MSHR misses (Count)
system.l2.overallMshrMisses::total               3291                       # number of overall MSHR misses (Count)
system.l2.demandMshrMissLatency::cpu.inst     56457500                       # number of demand (read+write) MSHR miss ticks (Tick)
system.l2.demandMshrMissLatency::cpu.data    184114500                       # number of demand (read+write) MSHR miss ticks (Tick)
system.l2.demandMshrMissLatency::total      240572000                       # number of demand (read+write) MSHR miss ticks (Tick)
system.l2.overallMshrMissLatency::cpu.inst     56457500                       # number of overall MSHR miss ticks (Tick)
system.l2.overallMshrMissLatency::cpu.data    184114500                       # number of overall MSHR miss ticks (Tick)
system.l2.overallMshrMissLatency::total     240572000                       # number of overall MSHR miss ticks (Tick)
system.l2.demandMshrMissRate::cpu.inst       0.002803                       # mshr miss ratio for demand accesses (Ratio)
system.l2.demandMshrMissRate::cpu.data       0.925771                       # mshr miss ratio for demand accesses (Ratio)
system.l2.demandMshrMissRate::total          0.010647                       # mshr miss ratio for demand accesses (Ratio)
system.l2.overallMshrMissRate::cpu.inst      0.002803                       # mshr miss ratio for overall accesses (Ratio)
system.l2.overallMshrMissRate::cpu.data      0.925771                       # mshr miss ratio for overall accesses (Ratio)
system.l2.overallMshrMissRate::total         0.010647                       # mshr miss ratio for overall accesses (Ratio)
system.l2.demandAvgMshrMissLatency::cpu.inst 65724.679860                       # average overall mshr miss latency ((Tick/Count))
system.l2.demandAvgMshrMissLatency::cpu.data 75704.975329                       # average overall mshr miss latency ((Tick/Count))
system.l2.demandAvgMshrMissLatency::total 73099.969614                       # average overall mshr miss latency ((Tick/Count))
system.l2.overallAvgMshrMissLatency::cpu.inst 65724.679860                       # average overall mshr miss latency ((Tick/Count))
system.l2.overallAvgMshrMissLatency::cpu.data 75704.975329                       # average overall mshr miss latency ((Tick/Count))
system.l2.overallAvgMshrMissLatency::total 73099.969614                       # average overall mshr miss latency ((Tick/Count))
system.l2.replacements                              0                       # number of replacements (Count)
system.l2.InvalidateReq.misses::cpu.data            8                       # number of InvalidateReq misses (Count)
system.l2.InvalidateReq.misses::total               8                       # number of InvalidateReq misses (Count)
system.l2.InvalidateReq.accesses::cpu.data            8                       # number of InvalidateReq accesses(hits+misses) (Count)
system.l2.InvalidateReq.accesses::total             8                       # number of InvalidateReq accesses(hits+misses) (Count)
system.l2.InvalidateReq.missRate::cpu.data            1                       # miss rate for InvalidateReq accesses (Ratio)
system.l2.InvalidateReq.missRate::total             1                       # miss rate for InvalidateReq accesses (Ratio)
system.l2.InvalidateReq.mshrMisses::cpu.data            8                       # number of InvalidateReq MSHR misses (Count)
system.l2.InvalidateReq.mshrMisses::total            8                       # number of InvalidateReq MSHR misses (Count)
system.l2.InvalidateReq.mshrMissLatency::cpu.data       152000                       # number of InvalidateReq MSHR miss ticks (Tick)
system.l2.InvalidateReq.mshrMissLatency::total       152000                       # number of InvalidateReq MSHR miss ticks (Tick)
system.l2.InvalidateReq.mshrMissRate::cpu.data            1                       # mshr miss rate for InvalidateReq accesses (Ratio)
system.l2.InvalidateReq.mshrMissRate::total            1                       # mshr miss rate for InvalidateReq accesses (Ratio)
system.l2.InvalidateReq.avgMshrMissLatency::cpu.data        19000                       # average InvalidateReq mshr miss latency ((Tick/Count))
system.l2.InvalidateReq.avgMshrMissLatency::total        19000                       # average InvalidateReq mshr miss latency ((Tick/Count))
system.l2.ReadCleanReq.hits::cpu.inst          305615                       # number of ReadCleanReq hits (Count)
system.l2.ReadCleanReq.hits::total             305615                       # number of ReadCleanReq hits (Count)
system.l2.ReadCleanReq.misses::cpu.inst           859                       # number of ReadCleanReq misses (Count)
system.l2.ReadCleanReq.misses::total              859                       # number of ReadCleanReq misses (Count)
system.l2.ReadCleanReq.missLatency::cpu.inst     65047500                       # number of ReadCleanReq miss ticks (Tick)
system.l2.ReadCleanReq.missLatency::total     65047500                       # number of ReadCleanReq miss ticks (Tick)
system.l2.ReadCleanReq.accesses::cpu.inst       306474                       # number of ReadCleanReq accesses(hits+misses) (Count)
system.l2.ReadCleanReq.accesses::total         306474                       # number of ReadCleanReq accesses(hits+misses) (Count)
system.l2.ReadCleanReq.missRate::cpu.inst     0.002803                       # miss rate for ReadCleanReq accesses (Ratio)
system.l2.ReadCleanReq.missRate::total       0.002803                       # miss rate for ReadCleanReq accesses (Ratio)
system.l2.ReadCleanReq.avgMissLatency::cpu.inst 75724.679860                       # average ReadCleanReq miss latency ((Tick/Count))
system.l2.ReadCleanReq.avgMissLatency::total 75724.679860                       # average ReadCleanReq miss latency ((Tick/Count))
system.l2.ReadCleanReq.mshrMisses::cpu.inst          859                       # number of ReadCleanReq MSHR misses (Count)
system.l2.ReadCleanReq.mshrMisses::total          859                       # number of ReadCleanReq MSHR misses (Count)
system.l2.ReadCleanReq.mshrMissLatency::cpu.inst     56457500                       # number of ReadCleanReq MSHR miss ticks (Tick)
system.l2.ReadCleanReq.mshrMissLatency::total     56457500                       # number of ReadCleanReq MSHR miss ticks (Tick)
system.l2.ReadCleanReq.mshrMissRate::cpu.inst     0.002803                       # mshr miss rate for ReadCleanReq accesses (Ratio)
system.l2.ReadCleanReq.mshrMissRate::total     0.002803                       # mshr miss rate for ReadCleanReq accesses (Ratio)
system.l2.ReadCleanReq.avgMshrMissLatency::cpu.inst 65724.679860                       # average ReadCleanReq mshr miss latency ((Tick/Count))
system.l2.ReadCleanReq.avgMshrMissLatency::total 65724.679860                       # average ReadCleanReq mshr miss latency ((Tick/Count))
system.l2.ReadExReq.hits::cpu.data                 37                       # number of ReadExReq hits (Count)
system.l2.ReadExReq.hits::total                    37                       # number of ReadExReq hits (Count)
system.l2.ReadExReq.misses::cpu.data             2181                       # number of ReadExReq misses (Count)
system.l2.ReadExReq.misses::total                2181                       # number of ReadExReq misses (Count)
system.l2.ReadExReq.missLatency::cpu.data    187320500                       # number of ReadExReq miss ticks (Tick)
system.l2.ReadExReq.missLatency::total      187320500                       # number of ReadExReq miss ticks (Tick)
system.l2.ReadExReq.accesses::cpu.data           2218                       # number of ReadExReq accesses(hits+misses) (Count)
system.l2.ReadExReq.accesses::total              2218                       # number of ReadExReq accesses(hits+misses) (Count)
system.l2.ReadExReq.missRate::cpu.data       0.983318                       # miss rate for ReadExReq accesses (Ratio)
system.l2.ReadExReq.missRate::total          0.983318                       # miss rate for ReadExReq accesses (Ratio)
system.l2.ReadExReq.avgMissLatency::cpu.data 85887.436956                       # average ReadExReq miss latency ((Tick/Count))
system.l2.ReadExReq.avgMissLatency::total 85887.436956                       # average ReadExReq miss latency ((Tick/Count))
system.l2.ReadExReq.mshrMisses::cpu.data         2181                       # number of ReadExReq MSHR misses (Count)
system.l2.ReadExReq.mshrMisses::total            2181                       # number of ReadExReq MSHR misses (Count)
system.l2.ReadExReq.mshrMissLatency::cpu.data    165510500                       # number of ReadExReq MSHR miss ticks (Tick)
system.l2.ReadExReq.mshrMissLatency::total    165510500                       # number of ReadExReq MSHR miss ticks (Tick)
system.l2.ReadExReq.mshrMissRate::cpu.data     0.983318                       # mshr miss rate for ReadExReq accesses (Ratio)
system.l2.ReadExReq.mshrMissRate::total      0.983318                       # mshr miss rate for ReadExReq accesses (Ratio)
system.l2.ReadExReq.avgMshrMissLatency::cpu.data 75887.436956                       # average ReadExReq mshr miss latency ((Tick/Count))
system.l2.ReadExReq.avgMshrMissLatency::total 75887.436956                       # average ReadExReq mshr miss latency ((Tick/Count))
system.l2.ReadSharedReq.hits::cpu.data            158                       # number of ReadSharedReq hits (Count)
system.l2.ReadSharedReq.hits::total               158                       # number of ReadSharedReq hits (Count)
system.l2.ReadSharedReq.misses::cpu.data          251                       # number of ReadSharedReq misses (Count)
system.l2.ReadSharedReq.misses::total             251                       # number of ReadSharedReq misses (Count)
system.l2.ReadSharedReq.missLatency::cpu.data     21114000                       # number of ReadSharedReq miss ticks (Tick)
system.l2.ReadSharedReq.missLatency::total     21114000                       # number of ReadSharedReq miss ticks (Tick)
system.l2.ReadSharedReq.accesses::cpu.data          409                       # number of ReadSharedReq accesses(hits+misses) (Count)
system.l2.ReadSharedReq.accesses::total           409                       # number of ReadSharedReq accesses(hits+misses) (Count)
system.l2.ReadSharedReq.missRate::cpu.data     0.613692                       # miss rate for ReadSharedReq accesses (Ratio)
system.l2.ReadSharedReq.missRate::total      0.613692                       # miss rate for ReadSharedReq accesses (Ratio)
system.l2.ReadSharedReq.avgMissLatency::cpu.data 84119.521912                       # average ReadSharedReq miss latency ((Tick/Count))
system.l2.ReadSharedReq.avgMissLatency::total 84119.521912                       # average ReadSharedReq miss latency ((Tick/Count))
system.l2.ReadSharedReq.mshrMisses::cpu.data          251                       # number of ReadSharedReq MSHR misses (Count)
system.l2.ReadSharedReq.mshrMisses::total          251                       # number of ReadSharedReq MSHR misses (Count)
system.l2.ReadSharedReq.mshrMissLatency::cpu.data     18604000                       # number of ReadSharedReq MSHR miss ticks (Tick)
system.l2.ReadSharedReq.mshrMissLatency::total     18604000                       # number of ReadSharedReq MSHR miss ticks (Tick)
system.l2.ReadSharedReq.mshrMissRate::cpu.data     0.613692                       # mshr miss rate for ReadSharedReq accesses (Ratio)
system.l2.ReadSharedReq.mshrMissRate::total     0.613692                       # mshr miss rate for ReadSharedReq accesses (Ratio)
system.l2.ReadSharedReq.avgMshrMissLatency::cpu.data 74119.521912                       # average ReadSharedReq mshr miss latency ((Tick/Count))
system.l2.ReadSharedReq.avgMshrMissLatency::total 74119.521912                       # average ReadSharedReq mshr miss latency ((Tick/Count))
system.l2.WritebackClean.hits::writebacks       306217                       # number of WritebackClean hits (Count)
system.l2.WritebackClean.hits::total           306217                       # number of WritebackClean hits (Count)
system.l2.WritebackClean.accesses::writebacks       306217                       # number of WritebackClean accesses(hits+misses) (Count)
system.l2.WritebackClean.accesses::total       306217                       # number of WritebackClean accesses(hits+misses) (Count)
system.l2.WritebackDirty.hits::writebacks         1370                       # number of WritebackDirty hits (Count)
system.l2.WritebackDirty.hits::total             1370                       # number of WritebackDirty hits (Count)
system.l2.WritebackDirty.accesses::writebacks         1370                       # number of WritebackDirty accesses(hits+misses) (Count)
system.l2.WritebackDirty.accesses::total         1370                       # number of WritebackDirty accesses(hits+misses) (Count)
system.l2.power_state.pwrStateResidencyTicks::UNDEFINED  11967668500                       # Cumulative time (in ticks) in various power states (Tick)
system.l2.tags.tagsInUse                  2276.606403                       # Average ticks per tags in use ((Tick/Count))
system.l2.tags.totalRefs                       616929                       # Total number of references to valid blocks. (Count)
system.l2.tags.sampledRefs                       3299                       # Sample count of references to valid blocks. (Count)
system.l2.tags.avgRefs                     187.004850                       # Average number of references to valid blocks. ((Count/Count))
system.l2.tags.warmupTick                       77000                       # The tick when the warmup percentage was hit. (Tick)
system.l2.tags.occupancies::writebacks       4.135461                       # Average occupied blocks per tick, per requestor ((Count/Tick))
system.l2.tags.occupancies::cpu.inst       855.174824                       # Average occupied blocks per tick, per requestor ((Count/Tick))
system.l2.tags.occupancies::cpu.data      1417.296118                       # Average occupied blocks per tick, per requestor ((Count/Tick))
system.l2.tags.avgOccs::writebacks           0.000126                       # Average percentage of cache occupancy ((Ratio/Tick))
system.l2.tags.avgOccs::cpu.inst             0.026098                       # Average percentage of cache occupancy ((Ratio/Tick))
system.l2.tags.avgOccs::cpu.data             0.043252                       # Average percentage of cache occupancy ((Ratio/Tick))
system.l2.tags.avgOccs::total                0.069477                       # Average percentage of cache occupancy ((Ratio/Tick))
system.l2.tags.occupanciesTaskId::1024           3299                       # Occupied blocks per task id (Count)
system.l2.tags.ageTaskId_1024::0                    2                       # Occupied blocks per task id, per block age (Count)
system.l2.tags.ageTaskId_1024::1                   14                       # Occupied blocks per task id, per block age (Count)
system.l2.tags.ageTaskId_1024::2                  149                       # Occupied blocks per task id, per block age (Count)
system.l2.tags.ageTaskId_1024::3                 1522                       # Occupied blocks per task id, per block age (Count)
system.l2.tags.ageTaskId_1024::4                 1612                       # Occupied blocks per task id, per block age (Count)
system.l2.tags.ratioOccsTaskId::1024         0.100677                       # Ratio of occupied blocks and all blocks, per task id (Ratio)
system.l2.tags.tagAccesses                    4938795                       # Number of tag accesses (Count)
system.l2.tags.dataAccesses                   4938795                       # Number of data accesses (Count)
system.l2.tags.power_state.pwrStateResidencyTicks::UNDEFINED  11967668500                       # Cumulative time (in ticks) in various power states (Tick)
system.mem_ctrls.avgPriority_cpu.inst::samples       859.00                       # Average QoS priority value for accepted requests (Count)
system.mem_ctrls.avgPriority_cpu.data::samples      2432.00                       # Average QoS priority value for accepted requests (Count)
system.mem_ctrls.priorityMinLatency      0.000000018750                       # per QoS priority minimum request to response latency (Second)
system.mem_ctrls.priorityMaxLatency      0.000000576500                       # per QoS priority maximum request to response latency (Second)
system.mem_ctrls.numReadWriteTurnArounds            0                       # Number of turnarounds from READ to WRITE (Count)
system.mem_ctrls.numWriteReadTurnArounds            0                       # Number of turnarounds from WRITE to READ (Count)
[...]
system.mem_ctrls.dram.perBankWrBursts::10            0                       # Per bank write bursts (Count)
system.mem_ctrls.dram.perBankWrBursts::11            0                       # Per bank write bursts (Count)
system.mem_ctrls.dram.perBankWrBursts::12            0                       # Per bank write bursts (Count)
system.mem_ctrls.dram.perBankWrBursts::13            0                       # Per bank write bursts (Count)
system.mem_ctrls.dram.perBankWrBursts::14            0                       # Per bank write bursts (Count)
system.mem_ctrls.dram.perBankWrBursts::15            0                       # Per bank write bursts (Count)
system.mem_ctrls.dram.totQLat                43650000                       # Total ticks spent queuing (Tick)
system.mem_ctrls.dram.totBusLat              16455000                       # Total ticks spent in databus transfers (Tick)
system.mem_ctrls.dram.totMemAccLat          105356250                       # Total ticks spent from burst creation until serviced by the DRAM (Tick)
system.mem_ctrls.dram.avgQLat                13263.45                       # Average queueing delay per DRAM burst ((Tick/Count))
system.mem_ctrls.dram.avgBusLat               5000.00                       # Average bus latency per DRAM burst ((Tick/Count))
system.mem_ctrls.dram.avgMemAccLat           32013.45                       # Average memory access latency per DRAM burst ((Tick/Count))
system.mem_ctrls.dram.readRowHits                 942                       # Number of row buffer hits during reads (Count)
system.mem_ctrls.dram.writeRowHits                  0                       # Number of row buffer hits during writes (Count)
system.mem_ctrls.dram.readRowHitRate            28.62                       # Row buffer hit rate for reads (Ratio)
system.mem_ctrls.dram.writeRowHitRate             nan                       # Row buffer hit rate for writes (Ratio)
system.mem_ctrls.dram.bytesPerActivate::samples         2349                       # Bytes accessed per row activation (Byte)
system.mem_ctrls.dram.bytesPerActivate::mean    89.665390                       # Bytes accessed per row activation (Byte)
system.mem_ctrls.dram.bytesPerActivate::gmean    72.606474                       # Bytes accessed per row activation (Byte)
system.mem_ctrls.dram.bytesPerActivate::stdev   117.973485                       # Bytes accessed per row activation (Byte)
system.mem_ctrls.dram.bytesPerActivate::0-127         2144     91.27%     91.27% # Bytes accessed per row activation (Byte)
system.mem_ctrls.dram.bytesPerActivate::128-255          102      4.34%     95.62% # Bytes accessed per row activation (Byte)
system.mem_ctrls.dram.bytesPerActivate::256-383           30      1.28%     96.89% # Bytes accessed per row activation (Byte)
system.mem_ctrls.dram.bytesPerActivate::384-511           22      0.94%     97.83% # Bytes accessed per row activation (Byte)
system.mem_ctrls.dram.bytesPerActivate::512-639           12      0.51%     98.34% # Bytes accessed per row activation (Byte)
system.mem_ctrls.dram.bytesPerActivate::640-767            8      0.34%     98.68% # Bytes accessed per row activation (Byte)
system.mem_ctrls.dram.bytesPerActivate::768-895           11      0.47%     99.15% # Bytes accessed per row activation (Byte)
system.mem_ctrls.dram.bytesPerActivate::896-1023            5      0.21%     99.36% # Bytes accessed per row activation (Byte)
system.mem_ctrls.dram.bytesPerActivate::1024-1151           15      0.64%    100.00% # Bytes accessed per row activation (Byte)
system.mem_ctrls.dram.bytesPerActivate::total         2349                       # Bytes accessed per row activation (Byte)
system.mem_ctrls.dram.bytesRead                210624                       # Total bytes read (Byte)
system.mem_ctrls.dram.bytesWritten                  0                       # Total bytes written (Byte)
system.mem_ctrls.dram.avgRdBW               17.599418                       # Average DRAM read bandwidth in MiBytes/s ((Byte/Second))
system.mem_ctrls.dram.avgWrBW                       0                       # Average DRAM write bandwidth in MiBytes/s ((Byte/Second))
system.mem_ctrls.dram.peakBW                 12800.00                       # Theoretical peak bandwidth in MiByte/s ((Byte/Second))
system.mem_ctrls.dram.busUtil                    0.14                       # Data bus utilization in percentage (Ratio)
system.mem_ctrls.dram.busUtilRead                0.14                       # Data bus utilization in percentage for reads (Ratio)
system.mem_ctrls.dram.busUtilWrite               0.00                       # Data bus utilization in percentage for writes (Ratio)
system.mem_ctrls.dram.pageHitRate               28.62                       # Row buffer hit rate, read and write combined (Ratio)
system.mem_ctrls.dram.power_state.pwrStateResidencyTicks::UNDEFINED  11967668500                       # Cumulative time (in ticks) in various power states (Tick)
system.mem_ctrls.dram.rank0.actEnergy        10324440                       # Energy for activate commands per rank (pJ) (Joule)
system.mem_ctrls.dram.rank0.preEnergy         5487570                       # Energy for precharge commands per rank (pJ) (Joule)
system.mem_ctrls.dram.rank0.readEnergy       15108240                       # Energy for read commands per rank (pJ) (Joule)
system.mem_ctrls.dram.rank0.writeEnergy             0                       # Energy for write commands per rank (pJ) (Joule)
system.mem_ctrls.dram.rank0.refreshEnergy 944701680.000000                       # Energy for refresh commands per rank (pJ) (Joule)
system.mem_ctrls.dram.rank0.actBackEnergy   1850942190                       # Energy for active background per rank (pJ) (Joule)
system.mem_ctrls.dram.rank0.preBackEnergy   3036918720                       # Energy for precharge background per rank (pJ) (Joule)
system.mem_ctrls.dram.rank0.actPowerDownEnergy            0                       # Energy for active power-down per rank (pJ) (Joule)
system.mem_ctrls.dram.rank0.prePowerDownEnergy            0                       # Energy for precharge power-down per rank (pJ) (Joule)
system.mem_ctrls.dram.rank0.selfRefreshEnergy            0                       # Energy for self refresh per rank (pJ) (Joule)
system.mem_ctrls.dram.rank0.totalEnergy    5863482840                       # Total energy per rank (pJ) (Joule)
system.mem_ctrls.dram.rank0.averagePower   489.943621                       # Core power per rank (mW) (Watt)
system.mem_ctrls.dram.rank0.totalIdleTime            0                       # Total Idle time Per DRAM Rank (Tick)
system.mem_ctrls.dram.rank0.pwrStateTime::IDLE   7874116750                       # Time in different power states (Tick)
system.mem_ctrls.dram.rank0.pwrStateTime::REF    399548500                       # Time in different power states (Tick)
system.mem_ctrls.dram.rank0.pwrStateTime::SREF            0                       # Time in different power states (Tick)
system.mem_ctrls.dram.rank0.pwrStateTime::PRE_PDN            0                       # Time in different power states (Tick)
system.mem_ctrls.dram.rank0.pwrStateTime::ACT   3694003250                       # Time in different power states (Tick)
system.mem_ctrls.dram.rank0.pwrStateTime::ACT_PDN            0                       # Time in different power states (Tick)
system.mem_ctrls.dram.rank1.actEnergy         6447420                       # Energy for activate commands per rank (pJ) (Joule)
system.mem_ctrls.dram.rank1.preEnergy         3426885                       # Energy for precharge commands per rank (pJ) (Joule)
system.mem_ctrls.dram.rank1.readEnergy        8389500                       # Energy for read commands per rank (pJ) (Joule)
system.mem_ctrls.dram.rank1.writeEnergy             0                       # Energy for write commands per rank (pJ) (Joule)
system.mem_ctrls.dram.rank1.refreshEnergy 944701680.000000                       # Energy for refresh commands per rank (pJ) (Joule)
system.mem_ctrls.dram.rank1.actBackEnergy   1371556800                       # Energy for active background per rank (pJ) (Joule)
system.mem_ctrls.dram.rank1.preBackEnergy   3440606400                       # Energy for precharge background per rank (pJ) (Joule)
system.mem_ctrls.dram.rank1.actPowerDownEnergy            0                       # Energy for active power-down per rank (pJ) (Joule)
system.mem_ctrls.dram.rank1.prePowerDownEnergy            0                       # Energy for precharge power-down per rank (pJ) (Joule)
system.mem_ctrls.dram.rank1.selfRefreshEnergy            0                       # Energy for self refresh per rank (pJ) (Joule)
system.mem_ctrls.dram.rank1.totalEnergy    5775128685                       # Total energy per rank (pJ) (Joule)
system.mem_ctrls.dram.rank1.averagePower   482.560884                       # Core power per rank (mW) (Watt)
system.mem_ctrls.dram.rank1.totalIdleTime            0                       # Total Idle time Per DRAM Rank (Tick)
system.mem_ctrls.dram.rank1.pwrStateTime::IDLE   8929725000                       # Time in different power states (Tick)
system.mem_ctrls.dram.rank1.pwrStateTime::REF    399562250                       # Time in different power states (Tick)
system.mem_ctrls.dram.rank1.pwrStateTime::SREF            0                       # Time in different power states (Tick)
system.mem_ctrls.dram.rank1.pwrStateTime::PRE_PDN            0                       # Time in different power states (Tick)
system.mem_ctrls.dram.rank1.pwrStateTime::ACT   2638381250                       # Time in different power states (Tick)
system.mem_ctrls.dram.rank1.pwrStateTime::ACT_PDN            0                       # Time in different power states (Tick)
system.mem_ctrls.power_state.pwrStateResidencyTicks::UNDEFINED  11967668500                       # Cumulative time (in ticks) in various power states (Tick)
system.membus.transDist::ReadResp                1110                       # Transaction distribution (Count)
system.membus.transDist::ReadExReq               2181                       # Transaction distribution (Count)
system.membus.transDist::ReadExResp              2181                       # Transaction distribution (Count)
system.membus.transDist::ReadSharedReq           1110                       # Transaction distribution (Count)
system.membus.transDist::InvalidateReq              8                       # Transaction distribution (Count)
system.membus.pktCount_system.l2.mem_side_port::system.mem_ctrls.port         6590                       # Packet count per connected requestor and responder (Count)
system.membus.pktCount::total                    6590                       # Packet count per connected requestor and responder (Count)
system.membus.pktSize_system.l2.mem_side_port::system.mem_ctrls.port       210624                       # Cumulative packet size per connected requestor and responder (Byte)
system.membus.pktSize::total                   210624                       # Cumulative packet size per connected requestor and responder (Byte)
system.membus.snoops                                0                       # Total snoops (Count)
system.membus.snoopTraffic                          0                       # Total snoop traffic (Byte)
system.membus.snoopFanout::samples               3299                       # Request fanout histogram (Count)
system.membus.snoopFanout::mean                     0                       # Request fanout histogram (Count)
system.membus.snoopFanout::stdev                    0                       # Request fanout histogram (Count)
system.membus.snoopFanout::underflows               0      0.00%      0.00% # Request fanout histogram (Count)
system.membus.snoopFanout::0                     3299    100.00%    100.00% # Request fanout histogram (Count)
system.membus.snoopFanout::1                        0      0.00%    100.00% # Request fanout histogram (Count)
system.membus.snoopFanout::overflows                0      0.00%    100.00% # Request fanout histogram (Count)
system.membus.snoopFanout::min_value                0                       # Request fanout histogram (Count)
system.membus.snoopFanout::max_value                0                       # Request fanout histogram (Count)
system.membus.snoopFanout::total                 3299                       # Request fanout histogram (Count)
system.membus.power_state.pwrStateResidencyTicks::UNDEFINED  11967668500                       # Cumulative time (in ticks) in various power states (Tick)
system.membus.reqLayer0.occupancy             3765500                       # Layer occupancy (ticks) (Tick)
system.membus.reqLayer0.utilization               0.0                       # Layer utilization (Ratio)
system.membus.respLayer1.occupancy           17895500                       # Layer occupancy (ticks) (Tick)
system.membus.respLayer1.utilization              0.0                       # Layer utilization (Ratio)
system.membus.snoop_filter.totRequests           3299                       # Total number of requests made to the snoop filter. (Count)
system.membus.snoop_filter.hitSingleRequests            0                       # Number of requests hitting in the snoop filter with a single holder of the requested data. (Count)
system.membus.snoop_filter.hitMultiRequests            0                       # Number of requests hitting in the snoop filter with multiple (>1) holders of the requested data. (Count)
system.membus.snoop_filter.totSnoops                0                       # Total number of snoops made to the snoop filter. (Count)
system.membus.snoop_filter.hitSingleSnoops            0                       # Number of snoops hitting in the snoop filter with a single holder of the requested data. (Count)
system.membus.snoop_filter.hitMultiSnoops            0                       # Number of snoops hitting in the snoop filter with multiple (>1) holders of the requested data. (Count)
system.tol2bus.transDist::ReadResp             306883                       # Transaction distribution (Count)
system.tol2bus.transDist::WritebackDirty         1370                       # Transaction distribution (Count)
system.tol2bus.transDist::WritebackClean       306218                       # Transaction distribution (Count)
system.tol2bus.transDist::CleanEvict              241                       # Transaction distribution (Count)
system.tol2bus.transDist::ReadExReq              2218                       # Transaction distribution (Count)
system.tol2bus.transDist::ReadExResp             2218                       # Transaction distribution (Count)
system.tol2bus.transDist::ReadCleanReq         306474                       # Transaction distribution (Count)
system.tol2bus.transDist::ReadSharedReq           409                       # Transaction distribution (Count)
system.tol2bus.transDist::InvalidateReq             8                       # Transaction distribution (Count)
system.tol2bus.transDist::InvalidateResp            8                       # Transaction distribution (Count)
system.tol2bus.pktCount_system.cpu.icache.mem_side_port::system.l2.cpu_side_port       919166                       # Packet count per connected requestor and responder (Count)
system.tol2bus.pktCount_system.cpu.dcache.mem_side_port::system.l2.cpu_side_port         6881                       # Packet count per connected requestor and responder (Count)
system.tol2bus.pktCount::total                 926047                       # Packet count per connected requestor and responder (Count)
system.tol2bus.pktSize_system.cpu.icache.mem_side_port::system.l2.cpu_side_port     39212288                       # Cumulative packet size per connected requestor and responder (Byte)
system.tol2bus.pktSize_system.cpu.dcache.mem_side_port::system.l2.cpu_side_port       255808                       # Cumulative packet size per connected requestor and responder (Byte)
system.tol2bus.pktSize::total                39468096                       # Cumulative packet size per connected requestor and responder (Byte)
system.tol2bus.snoops                               0                       # Total snoops (Count)
system.tol2bus.snoopTraffic                         0                       # Total snoop traffic (Byte)
system.tol2bus.snoopFanout::samples            309109                       # Request fanout histogram (Count)
system.tol2bus.snoopFanout::mean             0.000003                       # Request fanout histogram (Count)
system.tol2bus.snoopFanout::stdev            0.001799                       # Request fanout histogram (Count)
system.tol2bus.snoopFanout::underflows              0      0.00%      0.00% # Request fanout histogram (Count)
system.tol2bus.snoopFanout::0                  309108    100.00%    100.00% # Request fanout histogram (Count)
system.tol2bus.snoopFanout::1                       1      0.00%    100.00% # Request fanout histogram (Count)
system.tol2bus.snoopFanout::2                       0      0.00%    100.00% # Request fanout histogram (Count)
system.tol2bus.snoopFanout::overflows               0      0.00%    100.00% # Request fanout histogram (Count)
system.tol2bus.snoopFanout::min_value               0                       # Request fanout histogram (Count)
system.tol2bus.snoopFanout::max_value               1                       # Request fanout histogram (Count)
system.tol2bus.snoopFanout::total              309109                       # Request fanout histogram (Count)
system.tol2bus.power_state.pwrStateResidencyTicks::UNDEFINED  11967668500                       # Cumulative time (in ticks) in various power states (Tick)
system.tol2bus.reqLayer0.occupancy          616057000                       # Layer occupancy (ticks) (Tick)
system.tol2bus.reqLayer0.utilization              0.1                       # Layer utilization (Ratio)
system.tol2bus.respLayer0.occupancy         459711000                       # Layer occupancy (ticks) (Tick)
system.tol2bus.respLayer0.utilization             0.0                       # Layer utilization (Ratio)
system.tol2bus.respLayer1.occupancy           3944500                       # Layer occupancy (ticks) (Tick)
system.tol2bus.respLayer1.utilization             0.0                       # Layer utilization (Ratio)
system.tol2bus.snoop_filter.totRequests        616938                       # Total number of requests made to the snoop filter. (Count)
system.tol2bus.snoop_filter.hitSingleRequests       307829                       # Number of requests hitting in the snoop filter with a single holder of the requested data. (Count)
system.tol2bus.snoop_filter.hitMultiRequests            1                       # Number of requests hitting in the snoop filter with multiple (>1) holders of the requested data. (Count)
system.tol2bus.snoop_filter.totSnoops               0                       # Total number of snoops made to the snoop filter. (Count)
system.tol2bus.snoop_filter.hitSingleSnoops            0                       # Number of snoops hitting in the snoop filter with a single holder of the requested data. (Count)
system.tol2bus.snoop_filter.hitMultiSnoops            0                       # Number of snoops hitting in the snoop filter with multiple (>1) holders of the requested data. (Count)
system.voltage_domain.voltage                       1                       # Voltage in Volts (Volt)
system.workload.inst.arm                            0                       # number of arm instructions executed (Count)
system.workload.inst.quiesce                        0                       # number of quiesce instructions executed (Count)
system.cpu.idleCycles                         5621247                       # Total number of cycles that the object has spent stopped (Unspecified)
system.cpu.tickCycles                        18314090                       # Number of cycles that the object actually ticked (Unspecified)

---------- End Simulation Statistics   ----------
